10
 prova
  B    8.00000    0.10000    0.00000    1.93825    0.00000    0.00000
  B    6.00000    0.00000    0.00000   -1.22485    0.00000    0.00000
  B    4.00000    0.00000    0.10000    1.74556    0.00000    0.00000
  B    2.00000    0.00000    0.00000   -1.33405    0.00000    0.00000
  B    0.00000    0.00000    0.00000    1.63048    0.00000    0.00000
  B   -2.00000    0.10000    0.00000    0.00000    0.00000    0.00000
  B   -4.00000    0.00000    0.00000    1.29224    0.00000    0.00000
  B   -6.00000    0.00000    0.00000   -1.11765    0.00000    0.00000
  B   -8.00000    0.00000    0.00000    1.24603    0.00000    0.00000
  B  -10.00000    0.00000    0.00000   -1.19886    0.00000    0.00000
